Circuit: * Z:\home\ivopr\git\unir\transmissao-de-dados\atividade4-2.asc


Date: Tue Mar 28 10:28:02 2023
Total elapsed time: 0.123 seconds.

tnom = 27
temp = 27
method = trap
totiter = 0
traniter = 0
tranpoints = 0
accept = 0
rejected = 0
matrix size = 3
fillins = 0
solver = Normal

