Circuit: * Z:\home\ivopr\git\unir\transmissao-de-dados\Draft2.asc

.OP point found by inspection.

Date: Tue Mar 28 09:47:30 2023
Total elapsed time: 104.828 seconds.

tnom = 27
temp = 27
method = modified trap
totiter = 29710710
traniter = 29710710
tranpoints = 14855356
accept = 10004628
rejected = 4850728
matrix size = 3
fillins = 0
solver = Normal
Matrix Compiler1: 50 bytes object code size  0.2/0.2/[0.2]
Matrix Compiler2: 175 bytes object code size  0.2/0.2/[0.2]

